networks/opendss/CKT_2543_03584.dss
! OpenDSS script generated from multiconductor network
Clear

New Circuit.mc_network basekv=12.0 pu=1.000000 angle=0.00 frequency=60.0 phases=3 Mvasc3=143993 Mvasc1=47997.6
~ bus1=-8888882133432.1.2.3

! Line codes
New LineCode.1000_CLP_3PH_12KV_3 nphases=3 units=km Rmatrix=[ 0.025925 | 0 0.025925 | 0 0 0.025925 ] Xmatrix=[ 0.039242 | 0 0.039242 | 0 0 0.039242 ] Cmatrix=[ 0 | 0 0 | 0 0 0 ]
New LineCode.1/0_ACSR_3PH_1/0_ACSR_N_12KV_4 nphases=4 units=km Rmatrix=[ 0.073935 | 0 0.073935 | 0 0 0.073935 | 0 0 0 0.073935 ] Xmatrix=[ 0.053432 | 0 0.053432 | 0 0 0.053432 | 0 0 0 0.053432 ] Cmatrix=[ 0 | 0 0 | 0 0 0 | 0 0 0 0 ]
New LineCode.1/0_CLP_1PH_12KV_1 nphases=1 units=km Rmatrix=[ 0.074503 ] Xmatrix=[ 0.022772 ] Cmatrix=[ 0 ]
New LineCode.2_CLP_1PH_12KV_1 nphases=1 units=km Rmatrix=[ 0.220169 ] Xmatrix=[ 0.046407 ] Cmatrix=[ 0 ]
New LineCode.2_CLP_3PH_12KV_3 nphases=3 units=km Rmatrix=[ 0.109675 | 0 0.109675 | 0 0 0.109675 ] Xmatrix=[ 0.023117 | 0 0.023117 | 0 0 0.023117 ] Cmatrix=[ 0 | 0 0 | 0 0 0 ]
New LineCode.1000_JCN_3PH_12KV_3 nphases=3 units=km Rmatrix=[ 0.009387 | 0 0.009387 | 0 0 0.009387 ] Xmatrix=[ 0.014208 | 0 0.014208 | 0 0 0.014208 ] Cmatrix=[ 0 | 0 0 | 0 0 0 ]
New LineCode.1/0_JCN_1PH_12KV_1 nphases=1 units=km Rmatrix=[ 0.002704 ] Xmatrix=[ 0.000826 ] Cmatrix=[ 0 ]
New LineCode.1/0_CLP_3PH_12KV_3 nphases=3 units=km Rmatrix=[ 0.00183 | 0 0.00183 | 0 0 0.00183 ] Xmatrix=[ 0.000559 | 0 0.000559 | 0 0 0.000559 ] Cmatrix=[ 0 | 0 0 | 0 0 0 ]
New LineCode.4_ACSR_3PH_4_ACSR_N_12KV_4 nphases=4 units=km Rmatrix=[ 0.095748 | 0 0.095748 | 0 0 0.095748 | 0 0 0 0.095748 ] Xmatrix=[ 0.032206 | 0 0.032206 | 0 0 0.032206 | 0 0 0 0.032206 ] Cmatrix=[ 0 | 0 0 | 0 0 0 | 0 0 0 0 ]
New LineCode.2_AL_3PH_12KV_3 nphases=3 units=km Rmatrix=[ 0.053252 | 0 0.053252 | 0 0 0.053252 ] Xmatrix=[ 0.011225 | 0 0.011225 | 0 0 0.011225 ] Cmatrix=[ 0 | 0 0 | 0 0 0 ]
New LineCode.1/0_AL_1PH_12KV_1 nphases=1 units=km Rmatrix=[ 0.017319 ] Xmatrix=[ 0.005293 ] Cmatrix=[ 0 ]
New LineCode.350_JCN_3PH_12KV_3 nphases=3 units=km Rmatrix=[ 0.009641 | 0 0.009641 | 0 0 0.009641 ] Xmatrix=[ 0.007325 | 0 0.007325 | 0 0 0.007325 ] Cmatrix=[ 0 | 0 0 | 0 0 0 ]
New LineCode.2_AL_1PH_12KV_1 nphases=1 units=km Rmatrix=[ 0.127583 ] Xmatrix=[ 0.026892 ] Cmatrix=[ 0 ]
New LineCode.2_CLP_2PH_12KV_2 nphases=2 units=km Rmatrix=[ 0.286397 | 0 0.286397 ] Xmatrix=[ 0.060367 | 0 0.060367 ] Cmatrix=[ 0 | 0 0 ]
New LineCode.4_ACSR_1PH_4_ACSR_N_12KV_3_N nphases=3 units=km Rmatrix=[ 0.042281 | 0 0.042281 | 0 0 0.042281 ] Xmatrix=[ 0.014222 | 0 0.014222 | 0 0 0.014222 ] Cmatrix=[ 0 | 0 0 | 0 0 0 ]
New LineCode.336_ACSR_3PH_336_ACSR_N_12KV_4 nphases=4 units=km Rmatrix=[ 0.000851 | 0 0.000851 | 0 0 0.000851 | 0 0 0 0.000851 ] Xmatrix=[ 0.001696 | 0 0.001696 | 0 0 0.001696 | 0 0 0 0.001696 ] Cmatrix=[ 0 | 0 0 | 0 0 0 | 0 0 0 0 ]
New LineCode.2_ACSR_1PH_2_ACSR_N_12KV_3_N nphases=3 units=km Rmatrix=[ 0.01454 | 0 0.01454 | 0 0 0.01454 ] Xmatrix=[ 0.007045 | 0 0.007045 | 0 0 0.007045 ] Cmatrix=[ 0 | 0 0 | 0 0 0 ]
New LineCode.653_ACSR_3PH_653_ACSR_N_12KV_4 nphases=4 units=km Rmatrix=[ 0.017636 | 0 0.017636 | 0 0 0.017636 | 0 0 0 0.017636 ] Xmatrix=[ 0.059963 | 0 0.059963 | 0 0 0.059963 | 0 0 0 0.059963 ] Cmatrix=[ 0 | 0 0 | 0 0 0 | 0 0 0 0 ]
New LineCode.336_ACSR_3PH_12KV_3 nphases=3 units=km Rmatrix=[ 0.000643 | 0 0.000643 | 0 0 0.000643 ] Xmatrix=[ 0.001441 | 0 0.001441 | 0 0 0.001441 ] Cmatrix=[ 0 | 0 0 | 0 0 0 ]
New LineCode.1/0_ACSR_1PH_1/0_ACSR_N_12KV_3_N nphases=3 units=km Rmatrix=[ 0.002863 | 0 0.002863 | 0 0 0.002863 ] Xmatrix=[ 0.002069 | 0 0.002069 | 0 0 0.002069 ] Cmatrix=[ 0 | 0 0 | 0 0 0 ]
New LineCode.336_ACSR_1PH_336_ACSR_N_12KV_4 nphases=4 units=km Rmatrix=[ 0.000844 | 0 0.000844 | 0 0 0.000844 | 0 0 0 0.000844 ] Xmatrix=[ 0.001683 | 0 0.001683 | 0 0 0.001683 | 0 0 0 0.001683 ] Cmatrix=[ 0 | 0 0 | 0 0 0 | 0 0 0 0 ]
New LineCode.4_ACSR_2PH_4_ACSR_N_12KV_3_N nphases=3 units=km Rmatrix=[ 0.103072 | 0 0.103072 | 0 0 0.103072 ] Xmatrix=[ 0.034669 | 0 0.034669 | 0 0 0.034669 ] Cmatrix=[ 0 | 0 0 | 0 0 0 ]
New LineCode.4_ACSR_3PH_12KV_3 nphases=3 units=km Rmatrix=[ 0.103369 | 0 0.103369 | 0 0 0.103369 ] Xmatrix=[ 0.037931 | 0 0.037931 | 0 0 0.037931 ] Cmatrix=[ 0 | 0 0 | 0 0 0 ]
New LineCode.1/0_ACSR_3PH_12KV_3 nphases=3 units=km Rmatrix=[ 0.004431 | 0 0.004431 | 0 0 0.004431 ] Xmatrix=[ 0.003528 | 0 0.003528 | 0 0 0.003528 ] Cmatrix=[ 0 | 0 0 | 0 0 0 ]
New LineCode.336_ACSR_1PH_12KV_2 nphases=2 units=km Rmatrix=[ 0.001002 | 0 0.001002 ] Xmatrix=[ 0.002243 | 0 0.002243 ] Cmatrix=[ 0 | 0 0 ]
New LineCode.336_ACSR_2PH_12KV_2 nphases=2 units=km Rmatrix=[ 0.002068 | 0 0.002068 ] Xmatrix=[ 0.004632 | 0 0.004632 ] Cmatrix=[ 0 | 0 0 ]
New LineCode.6_CU_3PH_6_CU_N_12KV_4 nphases=4 units=km Rmatrix=[ 0.079553 | 0 0.079553 | 0 0 0.079553 | 0 0 0 0.079553 ] Xmatrix=[ 0.025692 | 0 0.025692 | 0 0 0.025692 | 0 0 0 0.025692 ] Cmatrix=[ 0 | 0 0 | 0 0 0 | 0 0 0 0 ]
New LineCode.4_ACSR_2PH_12KV_2 nphases=2 units=km Rmatrix=[ 0.126886 | 0 0.126886 ] Xmatrix=[ 0.04656 | 0 0.04656 ] Cmatrix=[ 0 | 0 0 ]
New LineCode.6_CU_1PH_6_CU_N_12KV_3_N nphases=3 units=km Rmatrix=[ 0.014108 | 0 0.014108 | 0 0 0.014108 ] Xmatrix=[ 0.004556 | 0 0.004556 | 0 0 0.004556 ] Cmatrix=[ 0 | 0 0 | 0 0 0 ]
New LineCode.2_CJ_CIC_1PH_12KV_1 nphases=1 units=km Rmatrix=[ 1e-05 ] Xmatrix=[ 1e-05 ] Cmatrix=[ 0 ]
New LineCode.6_CU_1PH_12KV_1 nphases=1 units=km Rmatrix=[ 1e-05 ] Xmatrix=[ 1e-05 ] Cmatrix=[ 0 ]
New LineCode.6_CU_3PH_12KV_3 nphases=3 units=km Rmatrix=[ 1e-05 | 0 1e-05 | 0 0 1e-05 ] Xmatrix=[ 1e-05 | 0 1e-05 | 0 0 1e-05 ] Cmatrix=[ 0 | 0 0 | 0 0 0 ]
New LineCode.750_CLP_3PH_12KV_3 nphases=3 units=km Rmatrix=[ 0.023682 | 0 0.023682 | 0 0 0.023682 ] Xmatrix=[ 0.029085 | 0 0.029085 | 0 0 0.029085 ] Cmatrix=[ 0 | 0 0 | 0 0 0 ]
New LineCode.750_CLP_1PH_12KV_1 nphases=1 units=km Rmatrix=[ 0.000304 ] Xmatrix=[ 0.000374 ] Cmatrix=[ 0 ]
New LineCode.1/0_JCN_3PH_12KV_3 nphases=3 units=km Rmatrix=[ 0.002766 | 0 0.002766 | 0 0 0.002766 ] Xmatrix=[ 0.000846 | 0 0.000846 | 0 0 0.000846 ] Cmatrix=[ 0 | 0 0 | 0 0 0 ]
New LineCode.1/0_CLP_2PH_12KV_2 nphases=2 units=km Rmatrix=[ 0.075744 | 0 0.075744 ] Xmatrix=[ 0.023151 | 0 0.023151 ] Cmatrix=[ 0 | 0 0 ]
New LineCode.4_CU_2PH_12KV_2 nphases=2 units=km Rmatrix=[ 0.009079 | 0 0.009079 ] Xmatrix=[ 0.004948 | 0 0.004948 ] Cmatrix=[ 0 | 0 0 ]
New LineCode.1/0_CU_3PH_12KV_3 nphases=3 units=km Rmatrix=[ 1e-05 | 0 1e-05 | 0 0 1e-05 ] Xmatrix=[ 1e-05 | 0 1e-05 | 0 0 1e-05 ] Cmatrix=[ 0 | 0 0 | 0 0 0 ]
New LineCode.2_CJ_CIC_2PH_12KV_2 nphases=2 units=km Rmatrix=[ 1e-05 | 0 1e-05 ] Xmatrix=[ 1e-05 | 0 1e-05 ] Cmatrix=[ 0 | 0 0 ]
New LineCode.1/0_ATW_3PH_12KV_3 nphases=3 units=km Rmatrix=[ 1e-05 | 0 1e-05 | 0 0 1e-05 ] Xmatrix=[ 1e-05 | 0 1e-05 | 0 0 1e-05 ] Cmatrix=[ 0 | 0 0 | 0 0 0 ]
New LineCode.1/0_ATW_2PH_12KV_2 nphases=2 units=km Rmatrix=[ 1e-05 | 0 1e-05 ] Xmatrix=[ 1e-05 | 0 1e-05 ] Cmatrix=[ 0 | 0 0 ]
New LineCode.1/0_ATW_2PH_1/0_ATW_N_12KV_3_N nphases=3 units=km Rmatrix=[ 1e-05 | 0 1e-05 | 0 0 1e-05 ] Xmatrix=[ 1e-05 | 0 1e-05 | 0 0 1e-05 ] Cmatrix=[ 0 | 0 0 | 0 0 0 ]

! Lines
New Line.550E$01604 phases=3 Bus1=-8888882133432.1.2.3 Bus2=30755333.1.2.3 LineCode=1000_CLP_3PH_12KV_3 Length=0.260694 units=km
New Line.PS0525$ND36688783 phases=4 Bus1=36688783.0.1.2.3 Bus2=36663283.0.1.2.3 LineCode=1/0_ACSR_3PH_1/0_ACSR_N_12KV_4 Length=0.053231 units=km
New Line.B5132398-1$B5132397-2 phases=1 Bus1=30796796.3 Bus2=30796859.3 LineCode=1/0_CLP_1PH_12KV_1 Length=0.089315 units=km
New Line.B5452379-2$B5452378-1 phases=1 Bus1=30799457.1 Bus2=30799538.1 LineCode=2_CLP_1PH_12KV_1 Length=0.130852 units=km
New Line.190284316$P5457538-1 phases=3 Bus1=190284319.1.2.3 Bus2=30800140.1.2.3 LineCode=2_CLP_3PH_12KV_3 Length=0.004253 units=km
New Line.B5131992-1$B5131991-1 phases=1 Bus1=61878735.2 Bus2=61878663.2 LineCode=1/0_CLP_1PH_12KV_1 Length=0.083777 units=km
New Line.B5151720-2$FD30874 phases=1 Bus1=36632283.3 Bus2=69634973.3 LineCode=2_CLP_1PH_12KV_1 Length=0.071976 units=km
New Line.GS7751-2$082EPH phases=3 Bus1=233482305.1.2.3 Bus2=233482173.1.2.3 LineCode=1000_JCN_3PH_12KV_3 Length=0.110684 units=km
New Line.GS7751-1$882EPH phases=3 Bus1=233482181.1.2.3 Bus2=233482290.1.2.3 LineCode=1000_JCN_3PH_12KV_3 Length=0.100952 units=km
New Line.B5131991-2$B5131990-2 phases=1 Bus1=61878672.2 Bus2=61878600.2 LineCode=1/0_CLP_1PH_12KV_1 Length=0.105683 units=km
New Line.B5056651-2$FD30875 phases=1 Bus1=36632544.1 Bus2=69634628.1 LineCode=2_CLP_1PH_12KV_1 Length=0.182434 units=km
New Line.FD30876$ND141214954 phases=1 Bus1=36632845.3 Bus2=141214954.3 LineCode=2_CLP_1PH_12KV_1 Length=0.190675 units=km
New Line.B5151720-1$B5158923-2 phases=1 Bus1=69634964.3 Bus2=69634888.3 LineCode=2_CLP_1PH_12KV_1 Length=0.1841 units=km
New Line.ND141214954$173099845 phases=1 Bus1=141214954.3 Bus2=173099847.3 LineCode=2_CLP_1PH_12KV_1 Length=0.032892 units=km
New Line.B5131989-2$B5131990-1 phases=1 Bus1=61878591.2 Bus2=61878528.2 LineCode=1/0_CLP_1PH_12KV_1 Length=0.09052 units=km
New Line.FD30877$B5132092-2 phases=1 Bus1=36633077.1 Bus2=69634509.1 LineCode=2_CLP_1PH_12KV_1 Length=0.48204 units=km
New Line.173099845$P5611046-1 phases=1 Bus1=173099848.3 Bus2=141214880.3 LineCode=2_CLP_1PH_12KV_1 Length=0.002528 units=km
New Line.FD30878$B5132089-1 phases=1 Bus1=36633309.2 Bus2=69634225.2 LineCode=2_CLP_1PH_12KV_1 Length=0.141248 units=km
New Line.B5158923-1$B5158922-2 phases=1 Bus1=69634879.3 Bus2=70767589.3 LineCode=2_CLP_1PH_12KV_1 Length=0.148067 units=km
New Line.ND36689555$B5056652-2 phases=1 Bus1=36689555.1 Bus2=70767662.1 LineCode=2_CLP_1PH_12KV_1 Length=0.071795 units=km
New Line.B5010304-2$FD30879 phases=1 Bus1=36633567.3 Bus2=69633757.3 LineCode=2_CLP_1PH_12KV_1 Length=0.112157 units=km
New Line.ND164825822$B5009677-2 phases=1 Bus1=164825822.3 Bus2=69634049.3 LineCode=2_CLP_1PH_12KV_1 Length=0.066052 units=km
New Line.B5132093-2$B5132092-1 phases=1 Bus1=69634500.1 Bus2=69634329.1 LineCode=2_CLP_1PH_12KV_1 Length=0.1485 units=km
New Line.ND164825822$B5009676-1 phases=1 Bus1=164825822.3 Bus2=70767507.3 LineCode=2_CLP_1PH_12KV_1 Length=0.082172 units=km
New Line.237278209$FD30880 phases=1 Bus1=36633799.2 Bus2=237278211.2 LineCode=2_CLP_1PH_12KV_1 Length=0.060004 units=km
New Line.B5132089-2$B5132090-1 phases=1 Bus1=69634234.2 Bus2=69634415.2 LineCode=2_CLP_1PH_12KV_1 Length=0.21944 units=km
New Line.B5056653-2$B5056655-1 phases=1 Bus1=69634803.1 Bus2=69634704.1 LineCode=2_CLP_1PH_12KV_1 Length=0.225274 units=km
New Line.1998883E$162304741 phases=3 Bus1=30755363.1.2.3 Bus2=162304743.1.2.3 LineCode=2_CLP_3PH_12KV_3 Length=0.097933 units=km
New Line.B5010313-1$FD30083 phases=1 Bus1=30798818.3 Bus2=30755426.3 LineCode=1/0_JCN_1PH_12KV_1 Length=0.051611 units=km
New Line.162304741$P5056511-1 phases=3 Bus1=162304744.1.2.3 Bus2=162304643.1.2.3 LineCode=2_CLP_3PH_12KV_3 Length=0.002468 units=km
New Line.B5132094-2$B5132093-1 phases=1 Bus1=69634320.1 Bus2=69256894.1 LineCode=2_CLP_1PH_12KV_1 Length=0.133469 units=km
New Line.P5056464-1$237278209 phases=1 Bus1=237278212.2 Bus2=69633848.2 LineCode=2_CLP_1PH_12KV_1 Length=0.003201 units=km
New Line.B5010304-1$B5010305-2 phases=1 Bus1=69633748.3 Bus2=69633942.3 LineCode=2_CLP_1PH_12KV_1 Length=0.238433 units=km
New Line.B5010331-1$ND200806660 phases=1 Bus1=200806660.3 Bus2=30756224.3 LineCode=2_CLP_1PH_12KV_1 Length=0.172748 units=km
New Line.B5010318-1$B5010317-2 phases=1 Bus1=30799733.3 Bus2=30755723.3 LineCode=2_CLP_1PH_12KV_1 Length=0.073237 units=km
New Line.B5010334-2$BS0728-1 phases=1 Bus1=30756174.2 Bus2=30756521.2 LineCode=2_CLP_1PH_12KV_1 Length=0.009305 units=km
New Line.B5010315-1$B5010314-2 phases=1 Bus1=30755507.3 Bus2=30755570.3 LineCode=2_CLP_1PH_12KV_1 Length=0.066042 units=km
New Line.B5010332-1$B5010331-2 phases=1 Bus1=30756233.3 Bus2=30756296.3 LineCode=2_CLP_1PH_12KV_1 Length=0.131875 units=km
New Line.30811011$1483150E phases=3 Bus1=30800233.1.2.3 Bus2=30811013.1.2.3 LineCode=1/0_CLP_3PH_12KV_3 Length=0.103055 units=km
New Line.B5132090-2$B5132091-2 phases=1 Bus1=69634424.2 Bus2=71821402.2 LineCode=2_CLP_1PH_12KV_1 Length=0.19684 units=km
New Line.ND202048501$B5456641-1 phases=1 Bus1=202048501.1 Bus2=70685803.1 LineCode=2_CLP_1PH_12KV_1 Length=0.083758 units=km
New Line.237278236$P5056464-2 phases=1 Bus1=69633857.2 Bus2=237278239.2 LineCode=2_CLP_1PH_12KV_1 Length=0.185677 units=km
New Line.B5010305-1$B5010306-2 phases=1 Bus1=69633933.3 Bus2=70767363.3 LineCode=2_CLP_1PH_12KV_1 Length=0.147043 units=km
New Line.ND107441404$ND36664482 phases=4 Bus1=107441404.0.1.2.3 Bus2=36664482.0.1.2.3 LineCode=4_ACSR_3PH_4_ACSR_N_12KV_4 Length=0.039977 units=km
New Line.237278263$237278236 phases=1 Bus1=237278238.2 Bus2=237278265.2 LineCode=2_CLP_1PH_12KV_1 Length=0.153221 units=km
New Line.B5010335-2$B5010334-1 phases=1 Bus1=30756512.2 Bus2=30756593.2 LineCode=2_CLP_1PH_12KV_1 Length=0.088133 units=km
New Line.B5010340-1$B5010327-1 phases=1 Bus1=30755908.1 Bus2=30755980.1 LineCode=2_CLP_1PH_12KV_1 Length=0.083657 units=km
New Line.30811011$P5503868-1 phases=3 Bus1=30811014.1.2.3 Bus2=30800188.1.2.3 LineCode=1/0_CLP_3PH_12KV_3 Length=0.002606 units=km
New Line.2237256E$239532358 phases=3 Bus1=30756872.1.2.3 Bus2=239532360.1.2.3 LineCode=2_AL_3PH_12KV_3 Length=0.04762 units=km
New Line.B5010316-1$B5010315-2 phases=1 Bus1=30755579.3 Bus2=30755642.3 LineCode=2_CLP_1PH_12KV_1 Length=0.016764 units=km
New Line.B5010339-2$B5010332-2 phases=1 Bus1=30756305.3 Bus2=30756377.3 LineCode=2_CLP_1PH_12KV_1 Length=0.133977 units=km
New Line.B5010336-1$B5010335-1 phases=1 Bus1=30756584.2 Bus2=30756656.2 LineCode=2_CLP_1PH_12KV_1 Length=0.103884 units=km
New Line.B5010341-1$B5010340-2 phases=1 Bus1=30755989.1 Bus2=30756052.1 LineCode=2_CLP_1PH_12KV_1 Length=0.1089 units=km
New Line.239532358$P5159143-1 phases=3 Bus1=239532361.1.2.3 Bus2=30756888.1.2.3 LineCode=2_AL_3PH_12KV_3 Length=0.002205 units=km
New Line.B5010338-2$B5010339-1 phases=1 Bus1=30756368.3 Bus2=30756449.3 LineCode=2_CLP_1PH_12KV_1 Length=0.110761 units=km
New Line.B5010337-1$B5010336-2 phases=1 Bus1=30756665.2 Bus2=30756728.2 LineCode=2_CLP_1PH_12KV_1 Length=0.111584 units=km
New Line.B5141568-1$FD30883 phases=1 Bus1=36645145.2 Bus2=69633663.2 LineCode=1/0_AL_1PH_12KV_1 Length=0.024567 units=km
New Line.P5056465-1$237278263 phases=1 Bus1=237278266.2 Bus2=70767266.2 LineCode=2_CLP_1PH_12KV_1 Length=0.002834 units=km
New Line.484$GS8517-1 phases=3 Bus1=231811705.1.2.3 Bus2=231811757.1.2.3 LineCode=350_JCN_3PH_12KV_3 Length=0.043593 units=km
New Line.FD30881$ND200661410 phases=1 Bus1=36634168.1 Bus2=200661410.1 LineCode=2_AL_1PH_12KV_1 Length=0.023635 units=km
New Line.4042884E$ND36664971 phases=3 Bus1=36634113.1.2.3 Bus2=36664971.1.2.3 LineCode=2_CLP_3PH_12KV_3 Length=0.003022 units=km
New Line.B5141571-1$FD30887 phases=1 Bus1=36645540.3 Bus2=69633323.3 LineCode=1/0_CLP_1PH_12KV_1 Length=0.045643 units=km
New Line.B5141569-1$B5141568-2 phases=1 Bus1=69633672.2 Bus2=69633578.2 LineCode=1/0_AL_1PH_12KV_1 Length=0.186647 units=km
New Line.ND200661410$B5316583-2 phases=1 Bus1=200661410.1 Bus2=70767200.1 LineCode=2_AL_1PH_12KV_1 Length=0.029572 units=km
New Line.ND36664971$ND36664872 phases=2 Bus1=36664971.1.2 Bus2=36664872.1.2 LineCode=2_CLP_2PH_12KV_2 Length=0.12265 units=km
New Line.ND36664971$P5443115-1 phases=3 Bus1=36664971.1.2.3 Bus2=70767026.1.2.3 LineCode=2_CLP_3PH_12KV_3 Length=0.0243 units=km
New Line.ND36664872$B5397539-1 phases=2 Bus1=36664872.1.2 Bus2=182732466.1.2 LineCode=2_CLP_2PH_12KV_2 Length=0.130872 units=km
New Line.203492778$ND36664872 phases=2 Bus1=36664872.1.2 Bus2=203492780.1.2 LineCode=2_CLP_2PH_12KV_2 Length=0.336535 units=km
New Line.GS8517-2$241872134 phases=1 Bus1=231811766.1 Bus2=241872137.1 LineCode=1/0_JCN_1PH_12KV_1 Length=0.004388 units=km
New Line.1773708E$1773707E phases=3 Bus1=30775125.0.1.3 Bus2=201695046.0.1.3 LineCode=4_ACSR_1PH_4_ACSR_N_12KV_3_N Length=0.087546 units=km
New Line.385E$GS8517-3 phases=3 Bus1=231811775.1.2.3 Bus2=231811888.1.2.3 LineCode=350_JCN_3PH_12KV_3 Length=0.140045 units=km
New Line.B5141571-2$B5141572-2 phases=1 Bus1=69633332.3 Bus2=69633417.3 LineCode=1/0_CLP_1PH_12KV_1 Length=0.304258 units=km
New Line.B5141570-2$B5141569-2 phases=1 Bus1=69633587.2 Bus2=70767816.2 LineCode=1/0_AL_1PH_12KV_1 Length=0.127161 units=km
New Line.237927931$241872134 phases=1 Bus1=241872136.1 Bus2=237927933.1 LineCode=1/0_JCN_1PH_12KV_1 Length=0.14272 units=km
New Line.ND200806743$B5131796-1 phases=1 Bus1=200806743.2 Bus2=70766656.2 LineCode=2_CLP_1PH_12KV_1 Length=0.057615 units=km
New Line.P5461476-1$203492778 phases=2 Bus1=203492781.1.2 Bus2=70767126.1.2 LineCode=2_CLP_2PH_12KV_2 Length=0.00232 units=km
New Line.1773707E$1773706E phases=3 Bus1=201695046.0.1.3 Bus2=30775150.0.1.3 LineCode=4_ACSR_1PH_4_ACSR_N_12KV_3_N Length=0.056602 units=km
New Line.237927931$FC8592-1 phases=1 Bus1=237927934.1 Bus2=237927564.1 LineCode=1/0_JCN_1PH_12KV_1 Length=0.001744 units=km
New Line.B5058787-2$B5151505-1 phases=1 Bus1=69633162.2 Bus2=69632983.2 LineCode=2_CLP_1PH_12KV_1 Length=0.148728 units=km
New Line.B5141572-1$B5141573-2 phases=1 Bus1=69633408.3 Bus2=69633502.3 LineCode=1/0_CLP_1PH_12KV_1 Length=0.148038 units=km
New Line.FC8592-1$237927963 phases=1 Bus1=237927565.1 Bus2=237927966.1 LineCode=1/0_JCN_1PH_12KV_1 Length=0.001677 units=km
New Line.B5151505-2$B5151506-1 phases=1 Bus1=69632992.2 Bus2=70766729.2 LineCode=2_CLP_1PH_12KV_1 Length=0.166706 units=km
New Line.B5141574-2$B5141573-1 phases=1 Bus1=69633493.3 Bus2=70767894.3 LineCode=1/0_CLP_1PH_12KV_1 Length=0.12507 units=km
New Line.237927963$237928013 phases=1 Bus1=237927965.1 Bus2=237928015.1 LineCode=1/0_JCN_1PH_12KV_1 Length=0.091032 units=km
New Line.237928013$ND237927611 phases=1 Bus1=237928016.1 Bus2=237927611.1 LineCode=1/0_JCN_1PH_12KV_1 Length=0.009401 units=km
New Line.B5132532-2$B5132533-2 phases=1 Bus1=69632907.2 Bus2=70766592.2 LineCode=2_CLP_1PH_12KV_1 Length=0.195601 units=km
New Line.B5141574-1$B5141575-2 phases=1 Bus1=70767885.3 Bus2=70767743.3 LineCode=1/0_CLP_1PH_12KV_1 Length=0.181512 units=km
New Line.237928038$ND237927611 phases=1 Bus1=237927611.1 Bus2=237928041.1 LineCode=1/0_JCN_1PH_12KV_1 Length=0.017895 units=km
New Line.ND237927611$237928063 phases=1 Bus1=237927611.1 Bus2=237928066.1 LineCode=1/0_JCN_1PH_12KV_1 Length=0.008928 units=km
New Line.ND237927611$237928088 phases=1 Bus1=237927611.1 Bus2=237928091.1 LineCode=1/0_JCN_1PH_12KV_1 Length=0.006649 units=km
New Line.ND36688203$PS0556 phases=4 Bus1=61926944.0.1.2.3 Bus2=36688203.0.1.2.3 LineCode=336_ACSR_3PH_336_ACSR_N_12KV_4 Length=0.050374 units=km
New Line.ND36688203$FD30874 phases=3 Bus1=36688203.0.1.3 Bus2=36632282.0.1.3 LineCode=2_ACSR_1PH_2_ACSR_N_12KV_3_N Length=0.09985 units=km
New Line.H30309Y$ND36688203 phases=4 Bus1=36688203.0.1.2.3 Bus2=36632533.0.1.2.3 LineCode=336_ACSR_3PH_336_ACSR_N_12KV_4 Length=0.319792 units=km
New Line.ND36664474$H30309Y phases=4 Bus1=36632533.0.1.2.3 Bus2=36664474.0.1.2.3 LineCode=336_ACSR_3PH_336_ACSR_N_12KV_4 Length=0.107614 units=km
New Line.ND36664474$FD30875 phases=3 Bus1=36664474.0.1.2 Bus2=36632543.0.1.2 LineCode=2_ACSR_1PH_2_ACSR_N_12KV_3_N Length=0.107932 units=km
New Line.ND36666287$ND36664474 phases=4 Bus1=36664474.0.1.2.3 Bus2=36666287.0.1.2.3 LineCode=336_ACSR_3PH_336_ACSR_N_12KV_4 Length=0.043682 units=km
New Line.550E$082EPH phases=4 Bus1=30755332.0.1.2.3 Bus2=233482073.0.1.2.3 LineCode=653_ACSR_3PH_653_ACSR_N_12KV_4 Length=0.172641 units=km
New Line.ND241656810$882EPH phases=4 Bus1=233482289.0.1.2.3 Bus2=241656810.0.1.2.3 LineCode=336_ACSR_3PH_336_ACSR_N_12KV_4 Length=0.004616 units=km
New Line.ND30811590$ND241656810 phases=4 Bus1=241656810.0.1.2.3 Bus2=30811590.0.1.2.3 LineCode=336_ACSR_3PH_336_ACSR_N_12KV_4 Length=0.018471 units=km
New Line.ND30811590$1998883E phases=3 Bus1=30811590.1.2.3 Bus2=30755362.1.2.3 LineCode=336_ACSR_3PH_12KV_3 Length=0.106286 units=km
New Line.ND30811590$ND30812053 phases=4 Bus1=30811590.0.1.2.3 Bus2=30812053.0.1.2.3 LineCode=336_ACSR_3PH_336_ACSR_N_12KV_4 Length=0.062969 units=km
New Line.H30305Y$ND36666287 phases=4 Bus1=36666287.0.1.2.3 Bus2=106573275.0.1.2.3 LineCode=336_ACSR_3PH_336_ACSR_N_12KV_4 Length=0.064828 units=km
New Line.ND36666287$FD30876 phases=3 Bus1=36666287.0.1.3 Bus2=36632844.0.1.3 LineCode=2_ACSR_1PH_2_ACSR_N_12KV_3_N Length=0.003605 units=km
New Line.ND36689876$H30305Y phases=4 Bus1=106573275.0.1.2.3 Bus2=36689876.0.1.2.3 LineCode=336_ACSR_3PH_336_ACSR_N_12KV_4 Length=0.031817 units=km
New Line.ND36689876$FD30877 phases=3 Bus1=36689876.0.1.3 Bus2=36633076.0.1.3 LineCode=2_ACSR_1PH_2_ACSR_N_12KV_3_N Length=0.002371 units=km
New Line.ND36664986$ND36689876 phases=4 Bus1=36689876.0.1.2.3 Bus2=36664986.0.1.2.3 LineCode=336_ACSR_3PH_336_ACSR_N_12KV_4 Length=0.002664 units=km
New Line.ND36664986$FD30878 phases=3 Bus1=36664986.0.1.2 Bus2=36633308.0.1.2 LineCode=2_ACSR_1PH_2_ACSR_N_12KV_3_N Length=0.00356 units=km
New Line.1733888E$ND36664986 phases=4 Bus1=36664986.0.1.2.3 Bus2=36633556.0.1.2.3 LineCode=336_ACSR_3PH_336_ACSR_N_12KV_4 Length=0.103645 units=km
New Line.ND36664232$1733888E phases=4 Bus1=36633556.0.1.2.3 Bus2=36664232.0.1.2.3 LineCode=336_ACSR_3PH_336_ACSR_N_12KV_4 Length=0.085266 units=km
New Line.ND36664232$FD30879 phases=3 Bus1=36664232.0.1.3 Bus2=36633566.0.1.3 LineCode=2_ACSR_1PH_2_ACSR_N_12KV_3_N Length=0.082772 units=km
New Line.ND36665568$ND36664232 phases=4 Bus1=36664232.0.1.2.3 Bus2=36665568.0.1.2.3 LineCode=336_ACSR_3PH_336_ACSR_N_12KV_4 Length=0.147297 units=km
New Line.ND36665568$FD30880 phases=3 Bus1=36665568.0.1.2 Bus2=36633798.0.1.2 LineCode=2_ACSR_1PH_2_ACSR_N_12KV_3_N Length=0.016107 units=km
New Line.ND70685341$ND36665568 phases=4 Bus1=36665568.0.1.2.3 Bus2=70685341.0.1.2.3 LineCode=1/0_ACSR_3PH_1/0_ACSR_N_12KV_4 Length=0.083147 units=km
New Line.PS2211$ND70685341 phases=4 Bus1=70685341.0.1.2.3 Bus2=36663020.0.1.2.3 LineCode=1/0_ACSR_3PH_1/0_ACSR_N_12KV_4 Length=0.005064 units=km
New Line.ND30812053$FD30083 phases=3 Bus1=30812053.0.1.3 Bus2=30798817.0.1.3 LineCode=1/0_ACSR_1PH_1/0_ACSR_N_12KV_3_N Length=0.002351 units=km
New Line.ND30812053$ND30813476 phases=4 Bus1=30812053.0.1.2.3 Bus2=30813476.0.1.2.3 LineCode=336_ACSR_3PH_336_ACSR_N_12KV_4 Length=0.069499 units=km
New Line.ND30813476$FD30084 phases=3 Bus1=30813476.0.1.3 Bus2=30798833.0.1.3 LineCode=2_ACSR_1PH_2_ACSR_N_12KV_3_N Length=0.098353 units=km
New Line.ND30813476$ND30812361 phases=4 Bus1=30813476.0.1.2.3 Bus2=30812361.0.1.2.3 LineCode=336_ACSR_3PH_336_ACSR_N_12KV_4 Length=0.028854 units=km
New Line.FD30934$ND30812361 phases=4 Bus1=30812361.0.1.2.3 Bus2=199880876.0.1.2.3 LineCode=336_ACSR_1PH_336_ACSR_N_12KV_4 Length=0.013022 units=km
New Line.FD30935$ND30812361 phases=4 Bus1=30812361.0.1.2.3 Bus2=199880889.0.1.2.3 LineCode=336_ACSR_1PH_336_ACSR_N_12KV_4 Length=0.013206 units=km
New Line.ND30812361$FD30936 phases=4 Bus1=30812361.0.1.2.3 Bus2=30798875.0.1.2.3 LineCode=336_ACSR_1PH_336_ACSR_N_12KV_4 Length=0.075951 units=km
New Line.ND30812361$ND30809990 phases=4 Bus1=30812361.0.1.2.3 Bus2=30809990.0.1.2.3 LineCode=336_ACSR_3PH_336_ACSR_N_12KV_4 Length=0.047097 units=km
New Line.PS2224$ND30809990 phases=4 Bus1=30809990.0.1.2.3 Bus2=30809961.0.1.2.3 LineCode=336_ACSR_3PH_336_ACSR_N_12KV_4 Length=0.052715 units=km
New Line.PS2211$ND36665148 phases=4 Bus1=36663021.0.1.2.3 Bus2=36665148.0.1.2.3 LineCode=1/0_ACSR_3PH_1/0_ACSR_N_12KV_4 Length=0.055955 units=km
New Line.4944158E$ND36665148 phases=4 Bus1=36665148.0.1.2.3 Bus2=36634077.0.1.2.3 LineCode=336_ACSR_3PH_336_ACSR_N_12KV_4 Length=0.054412 units=km
New Line.ND36665148$BF30484 phases=3 Bus1=36665148.0.1.2 Bus2=36663049.0.1.2 LineCode=4_ACSR_2PH_4_ACSR_N_12KV_3_N Length=0.015046 units=km
New Line.PS2224$ND30811575 phases=4 Bus1=30809962.0.1.2.3 Bus2=30811575.0.1.2.3 LineCode=336_ACSR_3PH_336_ACSR_N_12KV_4 Length=0.046349 units=km
New Line.ND30811575$1483113E phases=3 Bus1=30811575.1.2.3 Bus2=30756813.1.2.3 LineCode=4_ACSR_3PH_12KV_3 Length=0.069977 units=km
New Line.ND30811575$1483150E phases=3 Bus1=30811575.1.2.3 Bus2=30800232.1.2.3 LineCode=1/0_ACSR_3PH_12KV_3 Length=0.006901 units=km
New Line.ND30811575$ND30811519 phases=4 Bus1=30811575.0.1.2.3 Bus2=30811519.0.1.2.3 LineCode=336_ACSR_3PH_336_ACSR_N_12KV_4 Length=0.030078 units=km
New Line.1483113E$1483116E phases=3 Bus1=30756813.1.2.3 Bus2=30756838.1.2.3 LineCode=4_ACSR_3PH_12KV_3 Length=0.130989 units=km
New Line.ND30811519$BF30495 phases=2 Bus1=30811519.1.2 Bus2=30810007.1.2 LineCode=336_ACSR_1PH_12KV_2 Length=0.068971 units=km
New Line.ND30811519$ND30811501 phases=4 Bus1=30811519.0.1.2.3 Bus2=30811501.0.1.2.3 LineCode=336_ACSR_3PH_336_ACSR_N_12KV_4 Length=0.022085 units=km
New Line.1483116E$1483119E phases=3 Bus1=30756838.1.2.3 Bus2=30756863.1.2.3 LineCode=4_ACSR_3PH_12KV_3 Length=0.131742 units=km
New Line.ND30811501$BF30494 phases=2 Bus1=30811501.2.3 Bus2=30810027.2.3 LineCode=336_ACSR_2PH_12KV_2 Length=0.049017 units=km
New Line.ND30811501$ND30811800 phases=4 Bus1=30811501.0.1.2.3 Bus2=30811800.0.1.2.3 LineCode=336_ACSR_3PH_336_ACSR_N_12KV_4 Length=0.060205 units=km
New Line.ND36688783$4944158E phases=4 Bus1=36634077.0.1.2.3 Bus2=36688783.0.1.2.3 LineCode=336_ACSR_3PH_336_ACSR_N_12KV_4 Length=0.033876 units=km
New Line.ND36688783$ND246193404 phases=4 Bus1=36688783.0.1.2.3 Bus2=246193404.0.1.2.3 LineCode=6_CU_3PH_6_CU_N_12KV_4 Length=0.016267 units=km
New Line.BF30484$H15769Y phases=2 Bus1=36663050.1.2 Bus2=36633975.1.2 LineCode=4_ACSR_2PH_12KV_2 Length=0.060236 units=km
New Line.ND246193404$ND107441404 phases=4 Bus1=246193404.0.1.2.3 Bus2=107441404.0.1.2.3 LineCode=6_CU_3PH_6_CU_N_12KV_4 Length=0.055883 units=km
New Line.H15769Y$H15770Y phases=2 Bus1=36633975.1.2 Bus2=36634000.1.2 LineCode=4_ACSR_2PH_12KV_2 Length=0.061236 units=km
New Line.H15770Y$H15772Y phases=2 Bus1=36634000.1.2 Bus2=36634025.1.2 LineCode=4_ACSR_2PH_12KV_2 Length=0.1237 units=km
New Line.PS0525$ND36664128 phases=4 Bus1=36663284.0.1.2.3 Bus2=36664128.0.1.2.3 LineCode=1/0_ACSR_3PH_1/0_ACSR_N_12KV_4 Length=0.060624 units=km
New Line.H15772Y$4944434E phases=2 Bus1=36634025.1.2 Bus2=223820901.1.2 LineCode=4_ACSR_2PH_12KV_2 Length=0.064394 units=km
New Line.ND36664482$ND231811693 phases=4 Bus1=36664482.0.1.2.3 Bus2=231811693.0.1.2.3 LineCode=6_CU_3PH_6_CU_N_12KV_4 Length=0.0964 units=km
New Line.ND36664482$1205200E phases=4 Bus1=36664482.0.1.2.3 Bus2=36634104.0.1.2.3 LineCode=4_ACSR_3PH_4_ACSR_N_12KV_4 Length=0.071405 units=km
New Line.ND36664128$FD30883 phases=3 Bus1=36664128.0.1.2 Bus2=36645144.0.1.2 LineCode=1/0_ACSR_1PH_1/0_ACSR_N_12KV_3_N Length=0.060579 units=km
New Line.ND36663315$ND36664128 phases=4 Bus1=36664128.0.1.2.3 Bus2=36663315.0.1.2.3 LineCode=1/0_ACSR_3PH_1/0_ACSR_N_12KV_4 Length=0.060579 units=km
New Line.1483119E$2237256E phases=3 Bus1=30756863.1.2.3 Bus2=30756871.1.2.3 LineCode=4_ACSR_3PH_12KV_3 Length=0.12198 units=km
New Line.1533363E$BF30495 phases=2 Bus1=30810008.1.2 Bus2=30798908.1.2 LineCode=4_ACSR_2PH_12KV_2 Length=0.042667 units=km
New Line.ND30811800$BF30492 phases=2 Bus1=30811800.1.3 Bus2=30810065.1.3 LineCode=336_ACSR_2PH_12KV_2 Length=0.098308 units=km
New Line.ND30811800$ND30812837 phases=4 Bus1=30811800.0.1.2.3 Bus2=30812837.0.1.2.3 LineCode=336_ACSR_3PH_336_ACSR_N_12KV_4 Length=0.048693 units=km
New Line.BF30494$1483148E phases=2 Bus1=30810026.2.3 Bus2=30756999.2.3 LineCode=4_ACSR_2PH_12KV_2 Length=0.049017 units=km
New Line.1533364E$1533363E phases=2 Bus1=30798908.1.2 Bus2=30799614.1.2 LineCode=4_ACSR_2PH_12KV_2 Length=0.088988 units=km
New Line.ND30812837$BF30493 phases=2 Bus1=30812837.1.2 Bus2=30810105.1.2 LineCode=336_ACSR_2PH_12KV_2 Length=0.031581 units=km
New Line.ND30812837$ND30812838 phases=4 Bus1=30812837.0.1.2.3 Bus2=30812838.0.1.2.3 LineCode=336_ACSR_3PH_336_ACSR_N_12KV_4 Length=0.035046 units=km
New Line.1533364E$1533366E phases=2 Bus1=30799614.1.2 Bus2=30756949.1.2 LineCode=4_ACSR_2PH_12KV_2 Length=0.085343 units=km
New Line.BF30492$1533376E phases=2 Bus1=30810066.1.3 Bus2=30757024.1.3 LineCode=4_ACSR_2PH_12KV_2 Length=0.068838 units=km
New Line.ND30812838$BF30108 phases=2 Bus1=30812838.1.2 Bus2=30810143.1.2 LineCode=336_ACSR_2PH_12KV_2 Length=0.101202 units=km
New Line.ND231811693$484 phases=4 Bus1=231811693.0.1.2.3 Bus2=231811687.0.1.2.3 LineCode=6_CU_3PH_6_CU_N_12KV_4 Length=0.011063 units=km
New Line.4944434E$4944435E phases=2 Bus1=223820901.1.2 Bus2=280001758.1.2 LineCode=4_ACSR_2PH_12KV_2 Length=0.078004 units=km
New Line.ND231811693$ND36664483 phases=4 Bus1=231811693.0.1.2.3 Bus2=36664483.0.1.2.3 LineCode=6_CU_3PH_6_CU_N_12KV_4 Length=0.034138 units=km
New Line.ND36688363$ND36663315 phases=4 Bus1=36663315.0.1.2.3 Bus2=36688363.0.1.2.3 LineCode=1/0_ACSR_3PH_1/0_ACSR_N_12KV_4 Length=0.050355 units=km
New Line.1205200E$ND36688551 phases=4 Bus1=36634104.0.1.2.3 Bus2=36688551.0.1.2.3 LineCode=4_ACSR_3PH_4_ACSR_N_12KV_4 Length=0.062137 units=km
New Line.ND36688551$FD30881 phases=3 Bus1=36688551.0.1.3 Bus2=36634167.0.1.3 LineCode=4_ACSR_1PH_4_ACSR_N_12KV_3_N Length=0.137675 units=km
New Line.ND36688363$FD30882 phases=3 Bus1=36688363.0.1.3 Bus2=36645376.0.1.3 LineCode=2_ACSR_1PH_2_ACSR_N_12KV_3_N Length=0.016347 units=km
New Line.ND36664483$BF30485 phases=3 Bus1=36664483.0.1.2 Bus2=36663108.0.1.2 LineCode=4_ACSR_2PH_4_ACSR_N_12KV_3_N Length=0.001933 units=km
New Line.ND36688551$ND36664331 phases=4 Bus1=36688551.0.1.2.3 Bus2=36664331.0.1.2.3 LineCode=4_ACSR_3PH_4_ACSR_N_12KV_4 Length=0.075538 units=km
New Line.ND30812838$ND30811871 phases=4 Bus1=30812838.0.1.2.3 Bus2=30811871.0.1.2.3 LineCode=336_ACSR_3PH_336_ACSR_N_12KV_4 Length=0.041862 units=km
New Line.1533366E$1533369E phases=2 Bus1=30756949.1.2 Bus2=30756974.1.2 LineCode=4_ACSR_2PH_12KV_2 Length=0.133401 units=km
New Line.1533376E$1533373E phases=2 Bus1=30757024.1.3 Bus2=30757049.1.3 LineCode=4_ACSR_2PH_12KV_2 Length=0.130647 units=km
New Line.BF30493$1386844E phases=2 Bus1=30810104.1.2 Bus2=30757099.1.2 LineCode=4_ACSR_2PH_12KV_2 Length=0.071462 units=km
New Line.ND30811871$BF30490 phases=2 Bus1=30811871.1.2 Bus2=30810183.1.2 LineCode=336_ACSR_2PH_12KV_2 Length=0.0318 units=km
New Line.ND30811871$ND30812502 phases=4 Bus1=30811871.0.1.2.3 Bus2=30812502.0.1.2.3 LineCode=336_ACSR_3PH_336_ACSR_N_12KV_4 Length=0.041868 units=km
New Line.BF30108$1533379E phases=2 Bus1=30810144.1.2 Bus2=30757349.1.2 LineCode=4_ACSR_2PH_12KV_2 Length=0.068834 units=km
New Line.1533373E$1533371E phases=2 Bus1=30757049.1.3 Bus2=30799818.1.3 LineCode=4_ACSR_2PH_12KV_2 Length=0.085373 units=km
New Line.ND30812502$BF30491 phases=2 Bus1=30812502.1.3 Bus2=30810221.1.3 LineCode=336_ACSR_2PH_12KV_2 Length=0.004098 units=km
New Line.1386844E$ND30811561 phases=2 Bus1=30757099.1.2 Bus2=30811561.1.2 LineCode=4_ACSR_2PH_12KV_2 Length=0.083089 units=km
New Line.ND30812502$ND30812503 phases=4 Bus1=30812502.0.1.2.3 Bus2=30812503.0.1.2.3 LineCode=336_ACSR_3PH_336_ACSR_N_12KV_4 Length=0.022671 units=km
New Line.1533379E$1533380EI1 phases=2 Bus1=30757349.1.2 Bus2=235795743.1.2 LineCode=4_ACSR_2PH_12KV_2 Length=0.040809 units=km
New Line.ND30811561$1386847E phases=2 Bus1=30811561.1.2 Bus2=30757174.1.2 LineCode=4_ACSR_2PH_12KV_2 Length=0.031381 units=km
New Line.BF30490$1387081E phases=2 Bus1=30810182.1.2 Bus2=30757474.1.2 LineCode=4_ACSR_2PH_12KV_2 Length=0.068641 units=km
New Line.ND30812503$BF30109 phases=2 Bus1=30812503.1.2 Bus2=30810261.1.2 LineCode=336_ACSR_2PH_12KV_2 Length=0.100535 units=km
New Line.1483144E$ND30811561 phases=2 Bus1=30811561.1.2 Bus2=30810692.1.2 LineCode=4_ACSR_2PH_12KV_2 Length=0.03089 units=km
New Line.ND30812503$ND30812929 phases=4 Bus1=30812503.0.1.2.3 Bus2=30812929.0.1.2.3 LineCode=336_ACSR_3PH_336_ACSR_N_12KV_4 Length=0.05626 units=km
New Line.1386847E$1386848E phases=2 Bus1=30757174.1.2 Bus2=211265204.1.2 LineCode=4_ACSR_2PH_12KV_2 Length=0.042536 units=km
New Line.ND36688656$ND36688363 phases=4 Bus1=36688363.0.1.2.3 Bus2=36688656.0.1.2.3 LineCode=1/0_ACSR_3PH_1/0_ACSR_N_12KV_4 Length=0.107373 units=km
New Line.ND36664331$4042884E phases=3 Bus1=36664331.1.2.3 Bus2=36634112.1.2.3 LineCode=4_ACSR_3PH_12KV_3 Length=0.075538 units=km
New Line.ND36688656$FD30887 phases=3 Bus1=36688656.0.1.3 Bus2=36645539.0.1.3 LineCode=1/0_ACSR_1PH_1/0_ACSR_N_12KV_3_N Length=0.044297 units=km
New Line.1773690E$ND36688656 phases=4 Bus1=36688656.0.1.2.3 Bus2=36645934.0.1.2.3 LineCode=1/0_ACSR_3PH_1/0_ACSR_N_12KV_4 Length=0.044297 units=km
New Line.BF30485$1387275E phases=2 Bus1=36663109.1.2 Bus2=166668500.1.2 LineCode=4_ACSR_2PH_12KV_2 Length=0.026006 units=km
New Line.ND36665849$1773690E phases=4 Bus1=36645934.0.1.2.3 Bus2=36665849.0.1.2.3 LineCode=1/0_ACSR_3PH_1/0_ACSR_N_12KV_4 Length=0.115556 units=km
New Line.ND36665849$FD30888 phases=3 Bus1=36665849.0.1.2 Bus2=36645944.0.1.2 LineCode=2_ACSR_1PH_2_ACSR_N_12KV_3_N Length=0.003288 units=km
New Line.ND36664406$ND36665849 phases=4 Bus1=36665849.0.1.2.3 Bus2=36664406.0.1.2.3 LineCode=1/0_ACSR_3PH_1/0_ACSR_N_12KV_4 Length=0.149171 units=km
New Line.1387275E$ND36666345 phases=2 Bus1=166668500.1.2 Bus2=36666345.1.2 LineCode=4_ACSR_2PH_12KV_2 Length=0.05535 units=km
New Line.ND36666345$1387277E phases=2 Bus1=36666345.1.2 Bus2=36634344.1.2 LineCode=4_ACSR_2PH_12KV_2 Length=0.054979 units=km
New Line.1387081E$1387053E phases=2 Bus1=30757474.1.2 Bus2=30757499.1.2 LineCode=4_ACSR_2PH_12KV_2 Length=0.080282 units=km
New Line.BF30491$1619575E phases=2 Bus1=30810222.1.3 Bus2=30757624.1.3 LineCode=4_ACSR_2PH_12KV_2 Length=0.062798 units=km
New Line.1526814E$ND30812929 phases=3 Bus1=30812929.0.1.3 Bus2=30810727.0.1.3 LineCode=4_ACSR_2PH_4_ACSR_N_12KV_3_N Length=0.100772 units=km
New Line.ND30812929$ND30811766 phases=4 Bus1=30812929.0.1.2.3 Bus2=30811766.0.1.2.3 LineCode=336_ACSR_3PH_336_ACSR_N_12KV_4 Length=0.020216 units=km
...

! Switches
New Line.1526814E:1526814E phases=2 Bus1=30810727.1.3 Bus2=30810728.1.3 switch=y r1=0.001 x1=0.001 r0=0.001 x0=0.001 Length=0.001 units=km
New Line.1773678E:1773678E phases=2 Bus1=36663140.1.2 Bus2=36663141.1.2 switch=y r1=0.001 x1=0.001 r0=0.001 x0=0.001 Length=0.001 units=km
New Line.1483133E:1483133E phases=2 Bus1=30810672.1.2 Bus2=30810671.1.2 switch=y r1=0.001 x1=0.001 r0=0.001 x0=0.001 Length=0.001 units=km
New Line.1387077E:1387077E phases=2 Bus1=30810704.1.2 Bus2=30810705.1.2 switch=y r1=0.001 x1=0.001 r0=0.001 x0=0.001 Length=0.001 units=km
New Line.1615342E:1615342E phases=2 Bus1=30810751.1.3 Bus2=30810750.1.3 switch=y r1=0.001 x1=0.001 r0=0.001 x0=0.001 Length=0.001 units=km
New Line.H30329Y:H30329Y phases=3 Bus1=30810871.1.2.3 Bus2=30810872.1.2.3 switch=y r1=0.001 x1=0.001 r0=0.001 x0=0.001 Length=0.001 units=km
New Line.965841E:965841ET1 phases=2 Bus1=36663230.1.2 Bus2=36663231.1.2 switch=y r1=0.001 x1=0.001 r0=0.001 x0=0.001 Length=0.001 units=km
New Line.5329320:B5329320-2 phases=1 Bus1=70768112.3 Bus2=-77777770768112.3 switch=y r1=0.001 x1=0.001 r0=0.001 x0=0.001 Length=0.001 units=km
New Line.5329304:B5329304-1 phases=1 Bus1=70768344.3 Bus2=-77777770768344.3 switch=y r1=0.001 x1=0.001 r0=0.001 x0=0.001 Length=0.001 units=km
New Line.5329311:B5329311-1 phases=1 Bus1=70768422.3 Bus2=-77777770768422.3 switch=y r1=0.001 x1=0.001 r0=0.001 x0=0.001 Length=0.001 units=km
New Line.5329316:B5329316-1 phases=1 Bus1=70768185.3 Bus2=-77777770768185.3 switch=y r1=0.001 x1=0.001 r0=0.001 x0=0.001 Length=0.001 units=km
New Line.5605222:GS7751-4 phases=3 Bus1=233482166.1.2.3 Bus2=233482197.1.2.3 switch=y r1=0.001 x1=0.001 r0=0.001 x0=0.001 Length=0.001 units=km enabled=false
New Line.5745546:FC8592-1 phases=1 Bus1=237927564.1 Bus2=237927565.1 switch=y r1=0.001 x1=0.001 r0=0.001 x0=0.001 Length=0.001 units=km
New Line.5593434:PME7276-2 phases=1 Bus1=164318061.1 Bus2=164318070.1 switch=y r1=0.001 x1=0.001 r0=0.001 x0=0.001 Length=0.001 units=km
New Line.5456948:GS4713-3 phases=3 Bus1=30799889.1.2.3 Bus2=30799918.1.2.3 switch=y r1=0.001 x1=0.001 r0=0.001 x0=0.001 Length=0.001 units=km enabled=false
New Line.5461425:PME4578-3 phases=3 Bus1=177436704.1.2.3 Bus2=177436712.1.2.3 switch=y r1=0.001 x1=0.001 r0=0.001 x0=0.001 Length=0.001 units=km
New Line.BIANCO$PEBBLE_GS7751-4$GS7751-4 phases=3 Bus1=233482197.1.2.3 Bus2=-777777233482197.1.2.3 switch=y r1=0.001 x1=0.001 r0=0.001 x0=0.001 Length=0.001 units=km
New Line.BIANCO$SANTORINI_RCS1249$RCS1249 phases=3 Bus1=36663456.1.2.3 Bus2=-77777736663456.1.2.3 switch=y r1=0.001 x1=0.001 r0=0.001 x0=0.001 Length=0.001 units=km
New Line.BIANCO$SANTORINI_GS4713-3$GS4713-3 phases=3 Bus1=30799918.1.2.3 Bus2=-77777730799918.1.2.3 switch=y r1=0.001 x1=0.001 r0=0.001 x0=0.001 Length=0.001 units=km
New Line.BIANCO$PREGO_PS0057$PS0057 phases=3 Bus1=30810612.1.2.3 Bus2=-77777730810612.1.2.3 switch=y r1=0.001 x1=0.001 r0=0.001 x0=0.001 Length=0.001 units=km
New Line.BIANCO$BARILLA_PS0526$PS0526 phases=3 Bus1=30811332.1.2.3 Bus2=-77777730811332.1.2.3 switch=y r1=0.001 x1=0.001 r0=0.001 x0=0.001 Length=0.001 units=km
New Line.5746804:GS8517-4 phases=3 Bus1=231811749.1.2.3 Bus2=231811784.1.2.3 switch=y r1=0.001 x1=0.001 r0=0.001 x0=0.001 Length=0.001 units=km enabled=false
New Line.5461425:PME4578-4 phases=2 Bus1=177436703.1.2 Bus2=177436721.1.2 switch=y r1=0.001 x1=0.001 r0=0.001 x0=0.001 Length=0.001 units=km enabled=false
New Line.233482179$233482171 phases=3 Bus1=233482154.1.2.3 Bus2=233482153.1.2.3 switch=y r1=0.001 x1=0.001 r0=0.001 x0=0.001 Length=0.001 units=km
New Line.233482171$GS7751-3 phases=3 Bus1=233482154.1.2.3 Bus2=233482160.1.2.3 switch=y r1=0.001 x1=0.001 r0=0.001 x0=0.001 Length=0.001 units=km
New Line.GS7751-3$233482195 phases=3 Bus1=233482160.1.2.3 Bus2=233482166.1.2.3 switch=y r1=0.001 x1=0.001 r0=0.001 x0=0.001 Length=0.001 units=km
New Line.173099845 phases=1 Bus1=173099847.3 Bus2=173099848.3 switch=y r1=0.001 x1=0.001 r0=0.001 x0=0.001 Length=0.001 units=km
New Line.237278209 phases=1 Bus1=237278211.2 Bus2=237278212.2 switch=y r1=0.001 x1=0.001 r0=0.001 x0=0.001 Length=0.001 units=km
New Line.162304741 phases=3 Bus1=162304743.1.2.3 Bus2=162304744.1.2.3 switch=y r1=0.001 x1=0.001 r0=0.001 x0=0.001 Length=0.001 units=km
New Line.5605222:GS7751-3 phases=3 Bus1=233482160.1.2.3 Bus2=233482189.1.2.3 switch=y r1=0.001 x1=0.001 r0=0.001 x0=0.001 Length=0.001 units=km enabled=false
New Line.237278236 phases=1 Bus1=237278239.2 Bus2=237278238.2 switch=y r1=0.001 x1=0.001 r0=0.001 x0=0.001 Length=0.001 units=km
New Line.30811011 phases=3 Bus1=30811013.1.2.3 Bus2=30811014.1.2.3 switch=y r1=0.001 x1=0.001 r0=0.001 x0=0.001 Length=0.001 units=km
New Line.237278263 phases=1 Bus1=237278265.2 Bus2=237278266.2 switch=y r1=0.001 x1=0.001 r0=0.001 x0=0.001 Length=0.001 units=km
New Line.239532358 phases=3 Bus1=239532360.1.2.3 Bus2=239532361.1.2.3 switch=y r1=0.001 x1=0.001 r0=0.001 x0=0.001 Length=0.001 units=km
New Line.GS8517-1$GS8517-2 phases=3 Bus1=231811736.1.2.3 Bus2=231811737.1.2.3 switch=y r1=0.001 x1=0.001 r0=0.001 x0=0.001 Length=0.001 units=km
New Line.GS8517-2$GS8517-3 phases=3 Bus1=231811737.1.2.3 Bus2=231811743.1.2.3 switch=y r1=0.001 x1=0.001 r0=0.001 x0=0.001 Length=0.001 units=km
New Line.GS8517-3$GS8517-4 phases=3 Bus1=231811743.1.2.3 Bus2=231811749.1.2.3 switch=y r1=0.001 x1=0.001 r0=0.001 x0=0.001 Length=0.001 units=km
New Line.203492778 phases=2 Bus1=203492780.1.2 Bus2=203492781.1.2 switch=y r1=0.001 x1=0.001 r0=0.001 x0=0.001 Length=0.001 units=km
New Line.241872134 phases=1 Bus1=241872137.1 Bus2=241872136.1 switch=y r1=0.001 x1=0.001 r0=0.001 x0=0.001 Length=0.001 units=km
New Line.237927931 phases=1 Bus1=237927933.1 Bus2=237927934.1 switch=y r1=0.001 x1=0.001 r0=0.001 x0=0.001 Length=0.001 units=km
New Line.237927963 phases=1 Bus1=237927966.1 Bus2=237927965.1 switch=y r1=0.001 x1=0.001 r0=0.001 x0=0.001 Length=0.001 units=km
New Line.237928013 phases=1 Bus1=237928015.1 Bus2=237928016.1 switch=y r1=0.001 x1=0.001 r0=0.001 x0=0.001 Length=0.001 units=km
New Line.237928038 phases=1 Bus1=237928041.1 Bus2=237928040.1 switch=y r1=0.001 x1=0.001 r0=0.001 x0=0.001 Length=0.001 units=km
New Line.237928063 phases=1 Bus1=237928066.1 Bus2=237928065.1 switch=y r1=0.001 x1=0.001 r0=0.001 x0=0.001 Length=0.001 units=km
New Line.237928088 phases=1 Bus1=237928091.1 Bus2=237928090.1 switch=y r1=0.001 x1=0.001 r0=0.001 x0=0.001 Length=0.001 units=km
New Line.36663344 phases=3 Bus1=36663346.1.2.3 Bus2=36663347.1.2.3 switch=y r1=0.001 x1=0.001 r0=0.001 x0=0.001 Length=0.001 units=km
New Line.237927988 phases=1 Bus1=237927990.1 Bus2=237927991.1 switch=y r1=0.001 x1=0.001 r0=0.001 x0=0.001 Length=0.001 units=km
New Line.237928113 phases=1 Bus1=237928115.1 Bus2=237928116.1 switch=y r1=0.001 x1=0.001 r0=0.001 x0=0.001 Length=0.001 units=km
New Line.237928138 phases=1 Bus1=237928140.1 Bus2=237928141.1 switch=y r1=0.001 x1=0.001 r0=0.001 x0=0.001 Length=0.001 units=km
New Line.196258429 phases=3 Bus1=196258431.1.2.3 Bus2=196258432.1.2.3 switch=y r1=0.001 x1=0.001 r0=0.001 x0=0.001 Length=0.001 units=km
New Line.196258032$196258024 phases=3 Bus1=196258028.1.2.3 Bus2=196258036.1.2.3 switch=y r1=0.001 x1=0.001 r0=0.001 x0=0.001 Length=0.001 units=km
New Line.196258016$196258032 phases=3 Bus1=196258036.1.2.3 Bus2=196258020.1.2.3 switch=y r1=0.001 x1=0.001 r0=0.001 x0=0.001 Length=0.001 units=km
New Line.30799908$GS4713-2 phases=3 Bus1=30799882.1.2.3 Bus2=30799883.1.2.3 switch=y r1=0.001 x1=0.001 r0=0.001 x0=0.001 Length=0.001 units=km
New Line.GS4713-2$30799916 phases=3 Bus1=30799883.1.2.3 Bus2=30799889.1.2.3 switch=y r1=0.001 x1=0.001 r0=0.001 x0=0.001 Length=0.001 units=km
New Line.30799916$30799924 phases=3 Bus1=30799889.1.2.3 Bus2=30799895.1.2.3 switch=y r1=0.001 x1=0.001 r0=0.001 x0=0.001 Length=0.001 units=km
New Line.196258402 phases=3 Bus1=196258405.1.2.3 Bus2=196258404.1.2.3 switch=y r1=0.001 x1=0.001 r0=0.001 x0=0.001 Length=0.001 units=km
New Line.196258343 phases=3 Bus1=196258345.1.2.3 Bus2=196258346.1.2.3 switch=y r1=0.001 x1=0.001 r0=0.001 x0=0.001 Length=0.001 units=km
New Line.36663334 phases=3 Bus1=36663337.1.2.3 Bus2=36663336.1.2.3 switch=y r1=0.001 x1=0.001 r0=0.001 x0=0.001 Length=0.001 units=km
New Line.36663374 phases=3 Bus1=36663377.1.2.3 Bus2=36663376.1.2.3 switch=y r1=0.001 x1=0.001 r0=0.001 x0=0.001 Length=0.001 units=km
New Line.36663384 phases=3 Bus1=36663387.1.2.3 Bus2=36663386.1.2.3 switch=y r1=0.001 x1=0.001 r0=0.001 x0=0.001 Length=0.001 units=km
New Line.36663354 phases=3 Bus1=36663357.1.2.3 Bus2=36663356.1.2.3 switch=y r1=0.001 x1=0.001 r0=0.001 x0=0.001 Length=0.001 units=km
New Line.PME7276-2$PME7276-1 phases=3 Bus1=164318062.1.2.3 Bus2=164318061.1.2.3 switch=y r1=0.001 x1=0.001 r0=0.001 x0=0.001 Length=0.001 units=km
New Line.P5712753-B$P5712753 phases=3 Bus1=196258243.1.2.3 Bus2=196258244.1.2.3 switch=y r1=0.001 x1=0.001 r0=0.001 x0=0.001 Length=0.001 units=km
New Line.164318194 phases=1 Bus1=164318197.1 Bus2=164318196.1 switch=y r1=0.001 x1=0.001 r0=0.001 x0=0.001 Length=0.001 units=km
New Line.196258372 phases=3 Bus1=196258375.1.2.3 Bus2=196258374.1.2.3 switch=y r1=0.001 x1=0.001 r0=0.001 x0=0.001 Length=0.001 units=km
New Line.196258172 phases=3 Bus1=196258174.1.2.3 Bus2=196258175.1.2.3 switch=y r1=0.001 x1=0.001 r0=0.001 x0=0.001 Length=0.001 units=km
New Line.36646893 phases=3 Bus1=36646895.1.2.3 Bus2=36646896.1.2.3 switch=y r1=0.001 x1=0.001 r0=0.001 x0=0.001 Length=0.001 units=km
New Line.PME4578-4$PME4578-2 phases=3 Bus1=177436704.1.2.3 Bus2=177436703.1.2.3 switch=y r1=0.001 x1=0.001 r0=0.001 x0=0.001 Length=0.001 units=km
New Line.237928163 phases=1 Bus1=237928166.1 Bus2=237928165.1 switch=y r1=0.001 x1=0.001 r0=0.001 x0=0.001 Length=0.001 units=km
New Line.177436862 phases=1 Bus1=177436865.3 Bus2=177436864.3 switch=y r1=0.001 x1=0.001 r0=0.001 x0=0.001 Length=0.001 units=km
New Line.237928188 phases=1 Bus1=237928190.1 Bus2=237928191.1 switch=y r1=0.001 x1=0.001 r0=0.001 x0=0.001 Length=0.001 units=km
New Line.30775881$30775873 phases=3 Bus1=30775877.1.2.3 Bus2=30775885.1.2.3 switch=y r1=0.001 x1=0.001 r0=0.001 x0=0.001 Length=0.001 units=km
New Line.30775865$30775881 phases=3 Bus1=30775885.1.2.3 Bus2=30775869.1.2.3 switch=y r1=0.001 x1=0.001 r0=0.001 x0=0.001 Length=0.001 units=km
New Line.196258199 phases=3 Bus1=196258202.1.2.3 Bus2=196258201.1.2.3 switch=y r1=0.001 x1=0.001 r0=0.001 x0=0.001 Length=0.001 units=km
New Line.196258120 phases=3 Bus1=196258123.1.2.3 Bus2=196258122.1.2.3 switch=y r1=0.001 x1=0.001 r0=0.001 x0=0.001 Length=0.001 units=km
New Line.30810781 phases=3 Bus1=30810783.1.2.3 Bus2=30810784.1.2.3 switch=y r1=0.001 x1=0.001 r0=0.001 x0=0.001 Length=0.001 units=km
New Line.190284316 phases=3 Bus1=190284318.1.2.3 Bus2=190284319.1.2.3 switch=y r1=0.001 x1=0.001 r0=0.001 x0=0.001 Length=0.001 units=km
New Line.5131992:B5131992-1 phases=1 Bus1=61878736.2 Bus2=61878735.2 switch=y r1=0.001 x1=0.001 r0=0.001 x0=0.001 Length=0.001 units=km
New Line.5159148:P5159148-1 phases=3 Bus1=30776133.1.2.3 Bus2=30776134.1.2.3 switch=y r1=0.001 x1=0.001 r0=0.001 x0=0.001 Length=0.001 units=km
New Line.5057428:B5057428-2 phases=1 Bus1=30798196.1 Bus2=30798188.1 switch=y r1=0.001 x1=0.001 r0=0.001 x0=0.001 Length=0.001 units=km
New Line.5057691:B5057691-1 phases=1 Bus1=30798403.2 Bus2=30798404.2 switch=y r1=0.001 x1=0.001 r0=0.001 x0=0.001 Length=0.001 units=km
New Line.5057692:B5057692-1 phases=1 Bus1=30798475.2 Bus2=30798476.2 switch=y r1=0.001 x1=0.001 r0=0.001 x0=0.001 Length=0.001 units=km
New Line.5132398:B5132398-1 phases=1 Bus1=30796859.3 Bus2=30796860.3 switch=y r1=0.001 x1=0.001 r0=0.001 x0=0.001 Length=0.001 units=km
New Line.5452379:B5452379-2 phases=1 Bus1=30799538.1 Bus2=30799530.1 switch=y r1=0.001 x1=0.001 r0=0.001 x0=0.001 Length=0.001 units=km
New Line.5457538:P5457538-1 phases=3 Bus1=30800140.1.2.3 Bus2=30800141.1.2.3 switch=y r1=0.001 x1=0.001 r0=0.001 x0=0.001 Length=0.001 units=km
New Line.5605222:GS7751-2 phases=3 Bus1=233482173.1.2.3 Bus2=233482154.1.2.3 switch=y r1=0.001 x1=0.001 r0=0.001 x0=0.001 Length=0.001 units=km
New Line.5605222:GS7751-1 phases=3 Bus1=233482153.1.2.3 Bus2=233482181.1.2.3 switch=y r1=0.001 x1=0.001 r0=0.001 x0=0.001 Length=0.001 units=km
New Line.5611046:P5611046-1 phases=1 Bus1=141214880.3 Bus2=141214881.3 switch=y r1=0.001 x1=0.001 r0=0.001 x0=0.001 Length=0.001 units=km
New Line.4949726E:PS2211 phases=3 Bus1=36663020.1.2.3 Bus2=36663021.1.2.3 switch=y r1=0.001 x1=0.001 r0=0.001 x0=0.001 Length=0.001 units=km
New Line.5056511:P5056511-1 phases=3 Bus1=162304643.1.2.3 Bus2=162304644.1.2.3 switch=y r1=0.001 x1=0.001 r0=0.001 x0=0.001 Length=0.001 units=km
New Line.4843806E:PS2224 phases=3 Bus1=30809961.1.2.3 Bus2=30809962.1.2.3 switch=y r1=0.001 x1=0.001 r0=0.001 x0=0.001 Length=0.001 units=km
New Line.5010333:BS0728-1 phases=1 Bus1=30756175.2 Bus2=30756174.2 switch=y r1=0.001 x1=0.001 r0=0.001 x0=0.001 Length=0.001 units=km
New Line.1773684E:PS0525 phases=3 Bus1=36663283.1.2.3 Bus2=36663284.1.2.3 switch=y r1=0.001 x1=0.001 r0=0.001 x0=0.001 Length=0.001 units=km
New Line.5746804:GS8517-1 phases=3 Bus1=231811757.1.2.3 Bus2=231811736.1.2.3 switch=y r1=0.001 x1=0.001 r0=0.001 x0=0.001 Length=0.001 units=km
New Line.5746804:GS8517-2 phases=3 Bus1=231811737.1.2.3 Bus2=231811766.1.2.3 switch=y r1=0.001 x1=0.001 r0=0.001 x0=0.001 Length=0.001 units=km
New Line.1483144E:1483144E phases=2 Bus1=30810692.1.2 Bus2=30810691.1.2 switch=y r1=0.001 x1=0.001 r0=0.001 x0=0.001 Length=0.001 units=km
New Line.5746804:GS8517-3 phases=3 Bus1=231811743.1.2.3 Bus2=231811775.1.2.3 switch=y r1=0.001 x1=0.001 r0=0.001 x0=0.001 Length=0.001 units=km
New Line.1387276E:1387276E phases=2 Bus1=36663127.1.2 Bus2=36663128.1.2 switch=y r1=0.001 x1=0.001 r0=0.001 x0=0.001 Length=0.001 units=km
New Line.4555637E:RCS1249 phases=3 Bus1=36663455.1.2.3 Bus2=36663456.1.2.3 switch=y r1=0.001 x1=0.001 r0=0.001 x0=0.001 Length=0.001 units=km enabled=false
New Line.4884862E:FD30874 phases=2 Bus1=36632282.1.3 Bus2=36632283.1.3 switch=y r1=0.001 x1=0.001 r0=0.001 x0=0.001 Length=0.001 units=km
New Line.2153550E:550E phases=3 Bus1=30755333.1.2.3 Bus2=30755332.1.2.3 switch=y r1=0.001 x1=0.001 r0=0.001 x0=0.001 Length=0.001 units=km
New Line.4290082E:082EPH phases=3 Bus1=233482073.1.2.3 Bus2=233482305.1.2.3 switch=y r1=0.001 x1=0.001 r0=0.001 x0=0.001 Length=0.001 units=km
New Line.1998882E:882EPH phases=3 Bus1=233482290.1.2.3 Bus2=233482289.1.2.3 switch=y r1=0.001 x1=0.001 r0=0.001 x0=0.001 Length=0.001 units=km
New Line.1998883E:1998883E phases=3 Bus1=30755362.1.2.3 Bus2=30755363.1.2.3 switch=y r1=0.001 x1=0.001 r0=0.001 x0=0.001 Length=0.001 units=km
New Line.H30307Y:FD30875 phases=2 Bus1=36632543.1.2 Bus2=36632544.1.2 switch=y r1=0.001 x1=0.001 r0=0.001 x0=0.001 Length=0.001 units=km
New Line.4817519E:FD30876 phases=2 Bus1=36632844.1.3 Bus2=36632845.1.3 switch=y r1=0.001 x1=0.001 r0=0.001 x0=0.001 Length=0.001 units=km
New Line.4934045E:FD30877 phases=2 Bus1=36633076.1.3 Bus2=36633077.1.3 switch=y r1=0.001 x1=0.001 r0=0.001 x0=0.001 Length=0.001 units=km
New Line.4934045E:FD30878 phases=2 Bus1=36633308.1.2 Bus2=36633309.1.2 switch=y r1=0.001 x1=0.001 r0=0.001 x0=0.001 Length=0.001 units=km
New Line.1733886E:FD30879 phases=2 Bus1=36633566.1.3 Bus2=36633567.1.3 switch=y r1=0.001 x1=0.001 r0=0.001 x0=0.001 Length=0.001 units=km
New Line.H15783Y:FD30880 phases=2 Bus1=36633798.1.2 Bus2=36633799.1.2 switch=y r1=0.001 x1=0.001 r0=0.001 x0=0.001 Length=0.001 units=km
New Line.1998884E:FD30083 phases=2 Bus1=30798817.1.3 Bus2=30798818.1.3 switch=y r1=0.001 x1=0.001 r0=0.001 x0=0.001 Length=0.001 units=km
New Line.1998885E:FD30084 phases=2 Bus1=30798833.1.3 Bus2=30798834.1.3 switch=y r1=0.001 x1=0.001 r0=0.001 x0=0.001 Length=0.001 units=km
New Line.4810831E:FD30934 phases=3 Bus1=199880876.1.2.3 Bus2=199880877.1.2.3 switch=y r1=0.001 x1=0.001 r0=0.001 x0=0.001 Length=0.001 units=km
New Line.4810831E:FD30935 phases=3 Bus1=199880889.1.2.3 Bus2=199880890.1.2.3 switch=y r1=0.001 x1=0.001 r0=0.001 x0=0.001 Length=0.001 units=km
New Line.4810831E:FD30936 phases=3 Bus1=30798875.1.2.3 Bus2=30798876.1.2.3 switch=y r1=0.001 x1=0.001 r0=0.001 x0=0.001 Length=0.001 units=km
New Line.1483150E:1483150E phases=3 Bus1=30800232.1.2.3 Bus2=30800233.1.2.3 switch=y r1=0.001 x1=0.001 r0=0.001 x0=0.001 Length=0.001 units=km
New Line.2237256E:2237256E phases=3 Bus1=30756871.1.2.3 Bus2=30756872.1.2.3 switch=y r1=0.001 x1=0.001 r0=0.001 x0=0.001 Length=0.001 units=km
New Line.1773685E:FD30883 phases=2 Bus1=36645144.1.2 Bus2=36645145.1.2 switch=y r1=0.001 x1=0.001 r0=0.001 x0=0.001 Length=0.001 units=km
New Line.GT14484:484 phases=3 Bus1=231811687.1.2.3 Bus2=231811705.1.2.3 switch=y r1=0.001 x1=0.001 r0=0.001 x0=0.001 Length=0.001 units=km
New Line.1205401E:FD30881 phases=2 Bus1=36634167.1.3 Bus2=36634168.1.3 switch=y r1=0.001 x1=0.001 r0=0.001 x0=0.001 Length=0.001 units=km
New Line.1773687E:FD30882 phases=2 Bus1=36645376.1.3 Bus2=36645377.1.3 switch=y r1=0.001 x1=0.001 r0=0.001 x0=0.001 Length=0.001 units=km
New Line.4042884E:4042884E phases=3 Bus1=36634112.1.2.3 Bus2=36634113.1.2.3 switch=y r1=0.001 x1=0.001 r0=0.001 x0=0.001 Length=0.001 units=km
New Line.1773689E:FD30887 phases=2 Bus1=36645539.1.3 Bus2=36645540.1.3 switch=y r1=0.001 x1=0.001 r0=0.001 x0=0.001 Length=0.001 units=km
New Line.4207486E:FD30888 phases=2 Bus1=36645944.1.2 Bus2=36645945.1.2 switch=y r1=0.001 x1=0.001 r0=0.001 x0=0.001 Length=0.001 units=km
New Line.4337916E:FD30889 phases=2 Bus1=36646320.1.2 Bus2=36646321.1.2 switch=y r1=0.001 x1=0.001 r0=0.001 x0=0.001 Length=0.001 units=km
New Line.5443115:P5443115-1 phases=3 Bus1=70767026.1.2.3 Bus2=70767027.1.2.3 switch=y r1=0.001 x1=0.001 r0=0.001 x0=0.001 Length=0.001 units=km
New Line.1526974E:PS8707 phases=3 Bus1=246222992.1.2.3 Bus2=246222993.1.2.3 switch=y r1=0.001 x1=0.001 r0=0.001 x0=0.001 Length=0.001 units=km
New Line.2159165E:PS8970 phases=3 Bus1=242375121.1.2.3 Bus2=242375122.1.2.3 switch=y r1=0.001 x1=0.001 r0=0.001 x0=0.001 Length=0.001 units=km
New Line.2159168E:PS0094 phases=3 Bus1=173088226.1.2.3 Bus2=173088227.1.2.3 switch=y r1=0.001 x1=0.001 r0=0.001 x0=0.001 Length=0.001 units=km
New Line.4068380E:RCS0089 phases=3 Bus1=30810523.1.2.3 Bus2=30810524.1.2.3 switch=y r1=0.001 x1=0.001 r0=0.001 x0=0.001 Length=0.001 units=km
New Line.5712752:J752-3 phases=3 Bus1=196258027.1.2.3 Bus2=196258028.1.2.3 switch=y r1=0.001 x1=0.001 r0=0.001 x0=0.001 Length=0.001 units=km
New Line.5712752:J752-2 phases=3 Bus1=196258036.1.2.3 Bus2=196258035.1.2.3 switch=y r1=0.001 x1=0.001 r0=0.001 x0=0.001 Length=0.001 units=km
New Line.5712752:J752-1 phases=3 Bus1=196258020.1.2.3 Bus2=196258019.1.2.3 switch=y r1=0.001 x1=0.001 r0=0.001 x0=0.001 Length=0.001 units=km
New Line.5593434:PME7276-1 phases=1 Bus1=164318079.1 Bus2=164318062.1 switch=y r1=0.001 x1=0.001 r0=0.001 x0=0.001 Length=0.001 units=km
New Line.5461425:PME4578-2 phases=3 Bus1=177436730.1.2.3 Bus2=177436704.1.2.3 switch=y r1=0.001 x1=0.001 r0=0.001 x0=0.001 Length=0.001 units=km
New Line.5712753:P5712753-A phases=3 Bus1=196258261.1.2.3 Bus2=196258243.1.2.3 switch=y r1=0.001 x1=0.001 r0=0.001 x0=0.001 Length=0.001 units=km
New Line.5712753:P5712753-B phases=3 Bus1=196258243.1.2.3 Bus2=196258252.1.2.3 switch=y r1=0.001 x1=0.001 r0=0.001 x0=0.001 Length=0.001 units=km
New Line.5131991:B5131991-1 phases=1 Bus1=61878663.2 Bus2=61878664.2 switch=y r1=0.001 x1=0.001 r0=0.001 x0=0.001 Length=0.001 units=km
New Line.5131991:B5131991-2 phases=1 Bus1=61878664.2 Bus2=61878672.2 switch=y r1=0.001 x1=0.001 r0=0.001 x0=0.001 Length=0.001 units=km
New Line.5151720:B5151720-2 phases=1 Bus1=69634973.3 Bus2=69634965.3 switch=y r1=0.001 x1=0.001 r0=0.001 x0=0.001 Length=0.001 units=km
New Line.5131990:B5131990-2 phases=1 Bus1=61878600.2 Bus2=61878592.2 switch=y r1=0.001 x1=0.001 r0=0.001 x0=0.001 Length=0.001 units=km
New Line.5151720:B5151720-1 phases=1 Bus1=69634965.3 Bus2=69634964.3 switch=y r1=0.001 x1=0.001 r0=0.001 x0=0.001 Length=0.001 units=km
New Line.5131990:B5131990-1 phases=1 Bus1=61878592.2 Bus2=61878591.2 switch=y r1=0.001 x1=0.001 r0=0.001 x0=0.001 Length=0.001 units=km
New Line.5056651:B5056651-2 phases=1 Bus1=69634628.1 Bus2=69634620.1 switch=y r1=0.001 x1=0.001 r0=0.001 x0=0.001 Length=0.001 units=km
New Line.5056651:B5056651-1 phases=1 Bus1=69634620.1 Bus2=69634619.1 switch=y r1=0.001 x1=0.001 r0=0.001 x0=0.001 Length=0.001 units=km
New Line.5158923:B5158923-2 phases=1 Bus1=69634888.3 Bus2=69634880.3 switch=y r1=0.001 x1=0.001 r0=0.001 x0=0.001 Length=0.001 units=km
New Line.5131989:B5131989-2 phases=1 Bus1=61878528.2 Bus2=61878520.2 switch=y r1=0.001 x1=0.001 r0=0.001 x0=0.001 Length=0.001 units=km
New Line.5009678:B5009678-2 phases=1 Bus1=69634149.3 Bus2=69634141.3 switch=y r1=0.001 x1=0.001 r0=0.001 x0=0.001 Length=0.001 units=km
New Line.5158923:B5158923-1 phases=1 Bus1=69634880.3 Bus2=69634879.3 switch=y r1=0.001 x1=0.001 r0=0.001 x0=0.001 Length=0.001 units=km
New Line.5009678:B5009678-1 phases=1 Bus1=69634141.3 Bus2=69634140.3 switch=y r1=0.001 x1=0.001 r0=0.001 x0=0.001 Length=0.001 units=km
New Line.5132092:B5132092-2 phases=1 Bus1=69634509.1 Bus2=69634501.1 switch=y r1=0.001 x1=0.001 r0=0.001 x0=0.001 Length=0.001 units=km
New Line.5132089:B5132089-1 phases=1 Bus1=69634225.2 Bus2=69634226.2 switch=y r1=0.001 x1=0.001 r0=0.001 x0=0.001 Length=0.001 units=km
New Line.5132092:B5132092-1 phases=1 Bus1=69634501.1 Bus2=69634500.1 switch=y r1=0.001 x1=0.001 r0=0.001 x0=0.001 Length=0.001 units=km
New Line.5056653:B5056653-1 phases=1 Bus1=69634794.1 Bus2=69634795.1 switch=y r1=0.001 x1=0.001 r0=0.001 x0=0.001 Length=0.001 units=km
New Line.5158922:B5158922-2 phases=1 Bus1=70767589.3 Bus2=70767581.3 switch=y r1=0.001 x1=0.001 r0=0.001 x0=0.001 Length=0.001 units=km
New Line.5056652:B5056652-2 phases=1 Bus1=70767662.1 Bus2=70767654.1 switch=y r1=0.001 x1=0.001 r0=0.001 x0=0.001 Length=0.001 units=km
New Line.5132089:B5132089-2 phases=1 Bus1=69634226.2 Bus2=69634234.2 switch=y r1=0.001 x1=0.001 r0=0.001 x0=0.001 Length=0.001 units=km
New Line.5056653:B5056653-2 phases=1 Bus1=69634795.1 Bus2=69634803.1 switch=y r1=0.001 x1=0.001 r0=0.001 x0=0.001 Length=0.001 units=km
New Line.5010304:B5010304-2 phases=1 Bus1=69633757.3 Bus2=69633749.3 switch=y r1=0.001 x1=0.001 r0=0.001 x0=0.001 Length=0.001 units=km
New Line.5009677:B5009677-2 phases=1 Bus1=69634049.3 Bus2=69634041.3 switch=y r1=0.001 x1=0.001 r0=0.001 x0=0.001 Length=0.001 units=km
New Line.5132093:B5132093-2 phases=1 Bus1=69634329.1 Bus2=69634321.1 switch=y r1=0.001 x1=0.001 r0=0.001 x0=0.001 Length=0.001 units=km
New Line.5009676:B5009676-1 phases=1 Bus1=70767507.3 Bus2=70767508.3 switch=y r1=0.001 x1=0.001 r0=0.001 x0=0.001 Length=0.001 units=km
New Line.5010313:B5010313-1 phases=1 Bus1=30755426.3 Bus2=30755427.3 switch=y r1=0.001 x1=0.001 r0=0.001 x0=0.001 Length=0.001 units=km
New Line.5010304:B5010304-1 phases=1 Bus1=69633749.3 Bus2=69633748.3 switch=y r1=0.001 x1=0.001 r0=0.001 x0=0.001 Length=0.001 units=km
New Line.5132093:B5132093-1 phases=1 Bus1=69634321.1 Bus2=69634320.1 switch=y r1=0.001 x1=0.001 r0=0.001 x0=0.001 Length=0.001 units=km
New Line.5132090:B5132090-1 phases=1 Bus1=69634415.2 Bus2=69634416.2 switch=y r1=0.001 x1=0.001 r0=0.001 x0=0.001 Length=0.001 units=km
New Line.5056655:B5056655-1 phases=1 Bus1=69634704.1 Bus2=69634705.1 switch=y r1=0.001 x1=0.001 r0=0.001 x0=0.001 Length=0.001 units=km
New Line.5132090:B5132090-2 phases=1 Bus1=69634416.2 Bus2=69634424.2 switch=y r1=0.001 x1=0.001 r0=0.001 x0=0.001 Length=0.001 units=km
New Line.5056655:B5056655-2 phases=1 Bus1=69634705.1 Bus2=69634713.1 switch=y r1=0.001 x1=0.001 r0=0.001 x0=0.001 Length=0.001 units=km
New Line.5010313:B5010313-2 phases=1 Bus1=30755427.3 Bus2=30755435.3 switch=y r1=0.001 x1=0.001 r0=0.001 x0=0.001 Length=0.001 units=km
New Line.5010318:B5010318-2 phases=1 Bus1=30799742.3 Bus2=30799734.3 switch=y r1=0.001 x1=0.001 r0=0.001 x0=0.001 Length=0.001 units=km
New Line.5010329:B5010329-2 phases=1 Bus1=30755845.1 Bus2=30755837.1 switch=y r1=0.001 x1=0.001 r0=0.001 x0=0.001 Length=0.001 units=km
New Line.5010318:B5010318-1 phases=1 Bus1=30799734.3 Bus2=30799733.3 switch=y r1=0.001 x1=0.001 r0=0.001 x0=0.001 Length=0.001 units=km
New Line.5010314:B5010314-1 phases=1 Bus1=30755498.3 Bus2=30755499.3 switch=y r1=0.001 x1=0.001 r0=0.001 x0=0.001 Length=0.001 units=km
New Line.5010329:B5010329-1 phases=1 Bus1=30755837.1 Bus2=30755836.1 switch=y r1=0.001 x1=0.001 r0=0.001 x0=0.001 Length=0.001 units=km
New Line.5010331:B5010331-1 phases=1 Bus1=30756224.3 Bus2=30756225.3 switch=y r1=0.001 x1=0.001 r0=0.001 x0=0.001 Length=0.001 units=km
New Line.4817874E:36632513 phases=3 Bus1=36632515.1.2.3 Bus2=36632516.1.2.3 switch=y r1=0.001 x1=0.001 r0=0.001 x0=0.001 Length=0.001 units=km
New Line.4884863E:106573256 phases=3 Bus1=106573258.1.2.3 Bus2=106573259.1.2.3 switch=y r1=0.001 x1=0.001 r0=0.001 x0=0.001 Length=0.001 units=km
New Line.1733888E:36633536 phases=3 Bus1=36633538.1.2.3 Bus2=36633539.1.2.3 switch=y r1=0.001 x1=0.001 r0=0.001 x0=0.001 Length=0.001 units=km
New Line.1483113E:30756795 phases=3 Bus1=30756797.1.2.3 Bus2=30756798.1.2.3 switch=y r1=0.001 x1=0.001 r0=0.001 x0=0.001 Length=0.001 units=km
New Line.4944158E:36634057 phases=3 Bus1=36634059.1.2.3 Bus2=36634060.1.2.3 switch=y r1=0.001 x1=0.001 r0=0.001 x0=0.001 Length=0.001 units=km
New Line.H15769Y:36633957 phases=2 Bus1=36633959.1.2 Bus2=36633960.1.2 switch=y r1=0.001 x1=0.001 r0=0.001 x0=0.001 Length=0.001 units=km
New Line.H15770Y:36633982 phases=2 Bus1=36633984.1.2 Bus2=36633985.1.2 switch=y r1=0.001 x1=0.001 r0=0.001 x0=0.001 Length=0.001 units=km
New Line.1483116E:30756820 phases=3 Bus1=30756822.1.2.3 Bus2=30756823.1.2.3 switch=y r1=0.001 x1=0.001 r0=0.001 x0=0.001 Length=0.001 units=km
New Line.1483119E:30756845 phases=3 Bus1=30756847.1.2.3 Bus2=30756848.1.2.3 switch=y r1=0.001 x1=0.001 r0=0.001 x0=0.001 Length=0.001 units=km
New Line.1533363E:30798890 phases=2 Bus1=30798892.1.2 Bus2=30798893.1.2 switch=y r1=0.001 x1=0.001 r0=0.001 x0=0.001 Length=0.001 units=km
New Line.H15772Y:36634007 phases=2 Bus1=36634009.1.2 Bus2=36634010.1.2 switch=y r1=0.001 x1=0.001 r0=0.001 x0=0.001 Length=0.001 units=km
New Line.4944434E:223820882 phases=2 Bus1=223820884.1.2 Bus2=223820885.1.2 switch=y r1=0.001 x1=0.001 r0=0.001 x0=0.001 Length=0.001 units=km
New Line.1205200E:36634086 phases=3 Bus1=36634088.1.2.3 Bus2=36634089.1.2.3 switch=y r1=0.001 x1=0.001 r0=0.001 x0=0.001 Length=0.001 units=km
...